<?xml version="1.0" encoding="UTF-8"?>

<!-- generated on 2023-08-01 21:59:01 by Eclipse SUMO netedit Version 1.18.0
<configuration xmlns:xsi="http://www.w3.org/2001/XMLSchema-instance" xsi:noNamespaceSchemaLocation="http://sumo.dlr.de/xsd/neteditConfiguration.xsd">

    <input>
        <sumocfg-file value="/home/uwe/Documents/map.osm/map.sumocfg"/>
        <route-files value="/home/uwe/Documents/map.osm/map.rou.xml"/>
        <sumo-net-file value="/home/uwe/Documents/map.osm/map.net.xml"/>
    </input>

    <output>
        <output-file value="/home/uwe/Documents/map.osm/map.net.xml"/>
    </output>

    <processing>
        <geometry.min-radius.fix.railways value="false"/>
        <geometry.max-grade.fix value="false"/>
        <offset.disable-normalization value="true"/>
        <lefthand value="0"/>
    </processing>

    <junctions>
        <no-turnarounds value="true"/>
        <junctions.corner-detail value="5"/>
        <junctions.limit-turn-speed value="5.50"/>
        <rectangular-lane-cut value="0"/>
    </junctions>

    <pedestrian>
        <walkingareas value="0"/>
    </pedestrian>

</configuration>
-->

<net version="1.16" junctionCornerDetail="5" limitTurnSpeed="5.50" xmlns:xsi="http://www.w3.org/2001/XMLSchema-instance" xsi:noNamespaceSchemaLocation="http://sumo.dlr.de/xsd/net_file.xsd">

    <location netOffset="-535766.44,-5702420.38" convBoundary="0.00,0.00,1959.87,1772.33" origBoundary="-2.484916,51.471800,-2.456698,51.487752" projParameter="+proj=utm +zone=30 +ellps=WGS84 +datum=WGS84 +units=m +no_defs"/>

    <type id="highway.bridleway" priority="1" numLanes="1" speed="2.78" allow="pedestrian" oneway="1" width="2.00"/>
    <type id="highway.cycleway" priority="1" numLanes="1" speed="5.56" allow="bicycle" oneway="0" width="2.00"/>
    <type id="highway.footway" priority="1" numLanes="1" speed="2.78" allow="pedestrian" oneway="1" width="2.00"/>
    <type id="highway.pedestrian" priority="1" numLanes="1" speed="2.78" allow="pedestrian" oneway="1" width="2.00"/>
    <type id="highway.residential" priority="3" numLanes="1" speed="13.89" disallow="tram rail_urban rail rail_electric rail_fast ship" oneway="0"/>
    <type id="highway.secondary" priority="11" numLanes="1" speed="27.78" disallow="tram rail_urban rail rail_electric rail_fast ship" oneway="0"/>
    <type id="highway.service" priority="1" numLanes="1" speed="5.56" allow="pedestrian delivery bicycle" oneway="0"/>
    <type id="highway.steps" priority="1" numLanes="1" speed="1.39" allow="pedestrian" oneway="1" width="2.00"/>
    <type id="highway.trunk" priority="13" numLanes="2" speed="27.78" disallow="pedestrian bicycle tram rail_urban rail rail_electric rail_fast ship" oneway="0"/>
    <type id="highway.unclassified" priority="4" numLanes="1" speed="13.89" disallow="tram rail_urban rail rail_electric rail_fast ship" oneway="0"/>

    <edge id=":107262593_0" function="internal">
        <lane id=":107262593_0_0" index="0" allow="pedestrian bicycle" speed="2.89" length="2.92" width="2.00" shape="168.56,470.10 167.97,469.42 167.85,468.87 168.23,468.45 169.08,468.16"/>
    </edge>
    <edge id=":107264377_0" function="internal">
        <lane id=":107264377_0_0" index="0" allow="bicycle" speed="4.43" length="4.03" width="2.00" shape="859.74,1174.21 859.23,1173.23 858.53,1172.65 857.63,1172.47 856.55,1172.69"/>
    </edge>
    <edge id=":107264377_1" function="internal">
        <lane id=":107264377_1_0" index="0" allow="pedestrian bicycle" speed="5.56" length="6.94" width="2.00" shape="859.74,1174.21 857.63,1167.60"/>
    </edge>
    <edge id=":107264377_2" function="internal">
        <lane id=":107264377_2_0" index="0" allow="pedestrian bicycle" speed="2.89" length="2.92" width="2.00" shape="859.74,1174.21 859.96,1173.34 860.35,1172.94 860.91,1173.01 861.63,1173.55"/>
    </edge>
    <edge id=":107264377_3" function="internal">
        <lane id=":107264377_3_0" index="0" allow="pedestrian bicycle" speed="5.56" length="6.82" width="2.00" shape="859.56,1167.05 861.63,1173.55"/>
    </edge>
    <edge id=":107264377_4" function="internal">
        <lane id=":107264377_4_0" index="0" allow="bicycle" speed="5.56" length="7.19" width="2.00" shape="859.56,1167.05 859.81,1168.96 859.40,1170.53 858.31,1171.78 856.55,1172.69"/>
    </edge>
    <edge id=":107264377_5" function="internal">
        <lane id=":107264377_5_0" index="0" allow="pedestrian bicycle" speed="2.89" length="2.92" width="2.00" shape="859.56,1167.05 859.28,1167.91 858.87,1168.29 858.32,1168.18 857.63,1167.60"/>
    </edge>
    <edge id=":107264377_6" function="internal">
        <lane id=":107264377_6_0" index="0" allow="bicycle" speed="4.57" length="4.11" width="2.00" shape="855.88,1170.81 856.90,1170.28 857.53,1169.57 857.77,1168.68 857.63,1167.60"/>
    </edge>
    <edge id=":107264377_7" function="internal">
        <lane id=":107264377_7_0" index="0" allow="bicycle" speed="5.56" length="7.27" width="2.00" shape="855.88,1170.81 857.83,1170.41 859.44,1170.73 860.71,1171.78 861.63,1173.55"/>
    </edge>
    <edge id=":107264377_8" function="internal">
        <lane id=":107264377_8_0" index="0" allow="bicycle" speed="2.89" length="2.92" width="2.00" shape="855.88,1170.81 856.75,1171.03 857.16,1171.41 857.09,1171.97 856.55,1172.69"/>
    </edge>
    <edge id=":107268973_0" function="internal">
        <lane id=":107268973_0_0" index="0" allow="pedestrian bicycle" speed="2.89" length="2.92" width="2.00" shape="990.43,1707.38 990.60,1708.26 990.42,1708.79 989.89,1708.96 989.01,1708.78"/>
    </edge>
    <edge id=":108278465_0" function="internal">
        <lane id=":108278465_0_0" index="0" allow="bicycle" speed="5.25" length="4.28" width="2.00" shape="781.63,1131.81 780.67,1132.16 779.91,1132.79 779.37,1133.69 779.04,1134.86"/>
    </edge>
    <edge id=":108278465_1" function="internal">
        <lane id=":108278465_1_0" index="0" allow="bicycle" speed="5.56" length="6.62" width="2.00" shape="781.63,1131.81 779.71,1132.15 778.36,1132.22 777.02,1132.02 775.12,1131.56"/>
    </edge>
    <edge id=":108278465_2" function="internal">
        <lane id=":108278465_2_0" index="0" allow="bicycle" speed="2.89" length="2.92" width="2.00" shape="781.63,1131.81 780.80,1131.47 780.46,1131.03 780.61,1130.49 781.25,1129.85"/>
    </edge>
    <edge id=":108278465_3" function="internal">
        <lane id=":108278465_3_0" index="0" allow="bicycle" speed="5.56" length="5.74" width="2.00" shape="775.60,1129.62 777.25,1130.02 778.41,1130.19 779.58,1130.14 781.25,1129.85"/>
    </edge>
    <edge id=":108278465_4" function="internal">
        <lane id=":108278465_4_0" index="0" allow="bicycle" speed="5.56" length="7.04" width="2.00" shape="775.60,1129.62 777.37,1130.33 778.53,1131.44 779.09,1132.95 779.04,1134.86"/>
    </edge>
    <edge id=":108278465_5" function="internal">
        <lane id=":108278465_5_0" index="0" allow="bicycle" speed="2.89" length="2.92" width="2.00" shape="775.60,1129.62 776.20,1130.28 776.33,1130.83 775.96,1131.25 775.12,1131.56"/>
    </edge>
    <edge id=":108278465_6" function="internal">
        <lane id=":108278465_6_0" index="0" allow="bicycle" speed="4.54" length="3.99" width="2.00" shape="777.07,1134.53 777.10,1133.45 776.78,1132.59 776.12,1131.96 775.12,1131.56"/>
    </edge>
    <edge id=":108278465_7" function="internal">
        <lane id=":108278465_7_0" index="0" allow="bicycle" speed="5.56" length="6.71" width="2.00" shape="777.07,1134.53 777.58,1132.74 778.45,1131.37 779.67,1130.40 781.25,1129.85"/>
    </edge>
    <edge id=":108278465_8" function="internal">
        <lane id=":108278465_8_0" index="0" allow="bicycle" speed="2.89" length="2.92" width="2.00" shape="777.07,1134.53 777.69,1133.87 778.22,1133.71 778.68,1134.04 779.04,1134.86"/>
    </edge>
    <edge id=":108278477_0" function="internal">
        <lane id=":108278477_0_0" index="0" allow="bicycle" speed="5.56" length="4.98" width="2.00" shape="812.92,1176.76 807.97,1177.29"/>
    </edge>
    <edge id=":108278477_1" function="internal">
        <lane id=":108278477_1_0" index="0" allow="bicycle" speed="2.89" length="1.32" width="2.00" shape="812.92,1176.76 812.11,1176.37 811.88,1176.02"/>
    </edge>
    <edge id=":108278477_4" function="internal">
        <lane id=":108278477_4_0" index="0" allow="bicycle" speed="2.89" length="1.60" width="2.00" shape="811.88,1176.02 811.80,1175.91 811.98,1175.38 812.66,1174.78"/>
    </edge>
    <edge id=":108278477_2" function="internal">
        <lane id=":108278477_2_0" index="0" allow="bicycle" speed="5.56" length="4.83" width="2.00" shape="807.85,1175.29 812.66,1174.78"/>
    </edge>
    <edge id=":108278477_3" function="internal">
        <lane id=":108278477_3_0" index="0" allow="bicycle" speed="2.89" length="1.20" width="2.00" shape="807.85,1175.29 808.63,1175.75 808.78,1176.00"/>
    </edge>
    <edge id=":108278477_5" function="internal">
        <lane id=":108278477_5_0" index="0" allow="bicycle" speed="2.89" length="1.73" width="2.00" shape="808.78,1176.00 808.91,1176.23 808.69,1176.74 807.97,1177.29"/>
    </edge>
    <edge id=":1229008167_0" function="internal">
        <lane id=":1229008167_0_0" index="0" allow="pedestrian delivery bicycle" speed="3.65" length="4.67" shape="117.12,1406.44 117.00,1405.01 117.38,1404.20 118.25,1404.01 119.62,1404.46"/>
    </edge>
    <edge id=":1229008174_0" function="internal">
        <lane id=":1229008174_0_0" index="0" disallow="tram rail_urban rail rail_electric rail_fast ship" speed="3.65" length="4.67" shape="230.95,1401.65 229.51,1401.62 228.74,1401.16 228.65,1400.27 229.23,1398.95"/>
    </edge>
    <edge id=":1229008191_0" function="internal">
        <lane id=":1229008191_0_0" index="0" allow="pedestrian bicycle" speed="5.56" length="7.02" width="2.00" shape="232.98,1438.82 232.09,1437.14 231.92,1435.54 232.46,1434.03 233.71,1432.60"/>
    </edge>
    <edge id=":1229008191_1" function="internal">
        <lane id=":1229008191_1_0" index="0" allow="pedestrian bicycle" speed="2.89" length="2.92" width="2.00" shape="232.98,1438.82 232.95,1437.92 233.21,1437.42 233.76,1437.33 234.60,1437.65"/>
    </edge>
    <edge id=":1229008191_2" function="internal">
        <lane id=":1229008191_2_0" index="0" allow="pedestrian bicycle" speed="4.55" length="3.99" width="2.00" shape="235.02,1434.11 234.31,1434.92 234.00,1435.78 234.10,1436.69 234.60,1437.65"/>
    </edge>
    <edge id=":1229008191_3" function="internal">
        <lane id=":1229008191_3_0" index="0" allow="pedestrian bicycle" speed="2.89" length="2.92" width="2.00" shape="235.02,1434.11 234.13,1434.22 233.61,1434.01 233.47,1433.46 233.71,1432.60"/>
    </edge>
    <edge id=":1450551889_0" function="internal">
        <lane id=":1450551889_0_0" index="0" allow="pedestrian delivery bicycle" speed="5.56" length="12.00" shape="571.96,1096.56 569.55,1098.78 567.40,1100.44 565.07,1101.85 562.14,1103.34"/>
    </edge>
    <edge id=":1450551889_1" function="internal">
        <lane id=":1450551889_1_0" index="0" allow="pedestrian delivery bicycle" speed="5.56" length="13.15" shape="571.96,1096.56 569.35,1098.23 566.92,1098.00 564.67,1095.88 562.59,1091.87"/>
    </edge>
    <edge id=":1450551889_2" function="internal">
        <lane id=":1450551889_2_0" index="0" allow="pedestrian delivery bicycle" speed="3.67" length="4.75" shape="571.96,1096.56 570.50,1096.57 569.71,1096.12 569.59,1095.22 570.15,1093.87"/>
    </edge>
    <edge id=":1450551889_3" function="internal">
        <lane id=":1450551889_3_0" index="0" allow="pedestrian delivery bicycle" speed="4.75" length="5.60" shape="566.10,1092.04 566.98,1093.71 567.94,1094.56 569.00,1094.62 570.15,1093.87"/>
    </edge>
    <edge id=":1450551889_4" function="internal">
        <lane id=":1450551889_4_0" index="0" allow="pedestrian delivery bicycle" speed="5.56" length="13.45" shape="566.10,1092.04 567.04,1095.70 566.69,1098.80 565.06,1101.35 562.14,1103.34"/>
    </edge>
    <edge id=":1450551889_5" function="internal">
        <lane id=":1450551889_5_0" index="0" allow="pedestrian delivery bicycle" speed="3.77" length="5.14" shape="566.10,1092.04 565.16,1093.32 564.26,1093.72 563.40,1093.23 562.59,1091.87"/>
    </edge>
    <edge id=":1450551889_6" function="internal">
        <lane id=":1450551889_6_0" index="0" allow="pedestrian delivery bicycle" speed="5.56" length="9.79" shape="560.76,1100.45 562.53,1099.12 563.43,1097.25 563.44,1094.83 562.59,1091.87"/>
    </edge>
    <edge id=":1450551889_7" function="internal">
        <lane id=":1450551889_7_0" index="0" allow="pedestrian delivery bicycle" speed="5.56" length="11.54" shape="560.76,1100.45 563.62,1099.00 565.80,1097.65 567.80,1096.06 570.15,1093.87"/>
    </edge>
    <edge id=":1450551889_8" function="internal">
        <lane id=":1450551889_8_0" index="0" allow="pedestrian delivery bicycle" speed="3.65" length="4.67" shape="560.76,1100.45 562.19,1100.66 562.89,1101.20 562.88,1102.10 562.14,1103.34"/>
    </edge>
    <edge id=":1450551920_0" function="internal">
        <lane id=":1450551920_0_0" index="0" allow="pedestrian delivery bicycle" speed="4.97" length="5.08" shape="550.09,1112.57 549.45,1111.31 548.57,1110.59 547.46,1110.41 546.09,1110.75"/>
    </edge>
    <edge id=":1450551920_1" function="internal">
        <lane id=":1450551920_1_0" index="0" allow="pedestrian delivery bicycle" speed="5.56" length="10.07" shape="550.09,1112.57 549.52,1109.78 549.86,1107.44 551.10,1105.54 553.24,1104.07"/>
    </edge>
    <edge id=":1450551920_2" function="internal">
        <lane id=":1450551920_2_0" index="0" allow="pedestrian delivery bicycle" speed="3.65" length="4.67" shape="550.09,1112.57 550.46,1111.18 551.09,1110.54 551.98,1110.67 553.12,1111.55"/>
    </edge>
    <edge id=":1450551920_3" function="internal">
        <lane id=":1450551920_3_0" index="0" allow="pedestrian delivery bicycle" speed="5.41" length="5.36" shape="554.62,1106.96 553.54,1107.72 552.93,1108.74 552.79,1110.01 553.12,1111.55"/>
    </edge>
    <edge id=":1450551920_4" function="internal">
        <lane id=":1450551920_4_0" index="0" allow="pedestrian delivery bicycle" speed="5.56" length="9.34" shape="554.62,1106.96 546.09,1110.75"/>
    </edge>
    <edge id=":1450551920_5" function="internal">
        <lane id=":1450551920_5_0" index="0" allow="pedestrian delivery bicycle" speed="3.65" length="4.67" shape="554.62,1106.96 553.20,1106.76 552.49,1106.21 552.50,1105.31 553.24,1104.07"/>
    </edge>
    <edge id=":1450551920_6" function="internal">
        <lane id=":1450551920_6_0" index="0" allow="pedestrian delivery bicycle" speed="5.56" length="9.16" shape="544.87,1107.80 553.24,1104.07"/>
    </edge>
    <edge id=":1450551920_7" function="internal">
        <lane id=":1450551920_7_0" index="0" allow="pedestrian delivery bicycle" speed="5.56" length="10.50" shape="544.87,1107.80 547.68,1107.08 550.00,1107.46 551.81,1108.95 553.12,1111.55"/>
    </edge>
    <edge id=":1450551920_8" function="internal">
        <lane id=":1450551920_8_0" index="0" allow="pedestrian delivery bicycle" speed="3.65" length="4.67" shape="544.87,1107.80 546.28,1108.08 546.96,1108.66 546.89,1109.56 546.09,1110.75"/>
    </edge>
    <edge id=":1450551948_0" function="internal">
        <lane id=":1450551948_0_0" index="0" disallow="tram rail_urban rail rail_electric rail_fast ship" speed="8.94" length="4.90" shape="536.70,1171.43 532.20,1173.37"/>
    </edge>
    <edge id=":1450551948_1" function="internal">
        <lane id=":1450551948_1_0" index="0" disallow="tram rail_urban rail rail_electric rail_fast ship" speed="8.94" length="4.97" shape="530.90,1170.44 535.47,1168.48"/>
    </edge>
    <edge id=":1450551999_0" function="internal">
        <lane id=":1450551999_0_0" index="0" allow="pedestrian delivery bicycle" speed="5.56" length="9.40" shape="540.13,1113.23 531.47,1116.87"/>
    </edge>
    <edge id=":1450551999_1" function="internal">
        <lane id=":1450551999_1_0" index="0" allow="pedestrian delivery bicycle" speed="5.56" length="10.75" shape="540.13,1113.23 537.23,1113.97 534.88,1113.55 533.10,1111.97 531.88,1109.24"/>
    </edge>
    <edge id=":1450551999_2" function="internal">
        <lane id=":1450551999_2_0" index="0" allow="pedestrian delivery bicycle" speed="3.65" length="4.67" shape="540.13,1113.23 538.72,1112.95 538.04,1112.36 538.10,1111.47 538.90,1110.27"/>
    </edge>
    <edge id=":1450551999_3" function="internal">
        <lane id=":1450551999_3_0" index="0" allow="pedestrian delivery bicycle" speed="4.92" length="5.14" shape="534.96,1108.36 535.54,1109.67 536.39,1110.42 537.52,1110.62 538.90,1110.27"/>
    </edge>
    <edge id=":1450551999_4" function="internal">
        <lane id=":1450551999_4_0" index="0" allow="pedestrian delivery bicycle" speed="5.56" length="10.21" shape="534.96,1108.36 535.41,1111.24 534.97,1113.62 533.66,1115.49 531.47,1116.87"/>
    </edge>
    <edge id=":1450551999_5" function="internal">
        <lane id=":1450551999_5_0" index="0" allow="pedestrian delivery bicycle" speed="3.65" length="4.67" shape="534.96,1108.36 534.52,1109.73 533.86,1110.34 532.98,1110.17 531.88,1109.24"/>
    </edge>
    <edge id=":1450551999_6" function="internal">
        <lane id=":1450551999_6_0" index="0" allow="pedestrian delivery bicycle" speed="5.48" length="5.51" shape="530.21,1113.92 531.32,1113.20 531.97,1112.18 532.15,1110.86 531.88,1109.24"/>
    </edge>
    <edge id=":1450551999_7" function="internal">
        <lane id=":1450551999_7_0" index="0" allow="pedestrian delivery bicycle" speed="5.56" length="9.43" shape="530.21,1113.92 538.90,1110.27"/>
    </edge>
    <edge id=":1450551999_8" function="internal">
        <lane id=":1450551999_8_0" index="0" allow="pedestrian delivery bicycle" speed="3.65" length="4.67" shape="530.21,1113.92 531.63,1114.19 532.31,1114.77 532.26,1115.66 531.47,1116.87"/>
    </edge>
    <edge id=":1450552016_0" function="internal">
        <lane id=":1450552016_0_0" index="0" allow="pedestrian delivery bicycle" speed="5.56" length="10.53" shape="513.86,1153.15 513.04,1150.21 512.59,1148.04 512.33,1145.84 512.10,1142.80"/>
    </edge>
    <edge id=":1450552016_1" function="internal">
        <lane id=":1450552016_1_0" index="0" allow="pedestrian delivery bicycle" speed="5.56" length="10.86" shape="513.86,1153.15 513.54,1150.46 514.28,1148.20 516.08,1146.36 518.95,1144.94"/>
    </edge>
    <edge id=":1450552016_2" function="internal">
        <lane id=":1450552016_2_0" index="0" allow="pedestrian delivery bicycle" speed="3.65" length="4.67" shape="513.86,1153.15 514.29,1151.77 514.94,1151.16 515.82,1151.32 516.93,1152.25"/>
    </edge>
    <edge id=":1450552016_3" function="internal">
        <lane id=":1450552016_3_0" index="0" allow="pedestrian delivery bicycle" speed="5.52" length="5.92" shape="520.02,1147.95 518.35,1148.75 517.28,1149.73 516.80,1150.90 516.93,1152.25"/>
    </edge>
    <edge id=":1450552016_4" function="internal">
        <lane id=":1450552016_4_0" index="0" allow="pedestrian delivery bicycle" speed="5.56" length="11.61" shape="520.02,1147.95 516.78,1148.61 514.37,1147.97 512.81,1146.04 512.10,1142.80"/>
    </edge>
    <edge id=":1450552016_5" function="internal">
        <lane id=":1450552016_5_0" index="0" allow="pedestrian delivery bicycle" speed="3.65" length="4.67" shape="520.02,1147.95 518.62,1147.60 517.98,1146.98 518.09,1146.09 518.95,1144.94"/>
    </edge>
    <edge id=":1450552016_6" function="internal">
        <lane id=":1450552016_6_0" index="0" allow="pedestrian delivery bicycle" speed="4.80" length="5.36" shape="515.29,1142.56 515.62,1144.05 516.34,1144.95 517.45,1145.24 518.95,1144.94"/>
    </edge>
    <edge id=":1450552016_7" function="internal">
        <lane id=":1450552016_7_0" index="0" allow="pedestrian delivery bicycle" speed="5.56" length="9.86" shape="515.29,1142.56 515.51,1145.48 515.73,1147.47 516.14,1149.43 516.93,1152.25"/>
    </edge>
    <edge id=":1450552016_8" function="internal">
        <lane id=":1450552016_8_0" index="0" allow="pedestrian delivery bicycle" speed="3.65" length="4.67" shape="515.29,1142.56 514.58,1143.82 513.81,1144.27 512.99,1143.93 512.10,1142.80"/>
    </edge>
    <edge id=":1450552076_0" function="internal">
        <lane id=":1450552076_0_0" index="0" disallow="tram rail_urban rail rail_electric rail_fast ship" speed="8.94" length="9.49" shape="528.93,1174.83 520.22,1178.61"/>
    </edge>
    <edge id=":1450552076_1" function="internal">
        <lane id=":1450552076_1_0" index="0" allow="pedestrian delivery bicycle" speed="6.84" length="3.35" shape="528.93,1174.83 526.20,1175.60 525.69,1175.54"/>
    </edge>
    <edge id=":1450552076_7" function="internal">
        <lane id=":1450552076_7_0" index="0" allow="pedestrian delivery bicycle" speed="6.84" length="6.97" shape="525.69,1175.54 523.90,1175.30 522.03,1173.93 520.59,1171.48"/>
    </edge>
    <edge id=":1450552076_2" function="internal">
        <lane id=":1450552076_2_0" index="0" allow="pedestrian delivery bicycle" speed="5.01" length="5.04" shape="523.55,1170.27 524.26,1171.47 525.17,1172.14 526.29,1172.28 527.62,1171.90"/>
    </edge>
    <edge id=":1450552076_3" function="internal">
        <lane id=":1450552076_3_0" index="0" allow="pedestrian delivery bicycle" speed="6.91" length="10.21" shape="523.55,1170.27 524.25,1173.01 523.93,1175.31 522.58,1177.18 520.22,1178.61"/>
    </edge>
    <edge id=":1450552076_4" function="internal">
        <lane id=":1450552076_4_0" index="0" allow="pedestrian delivery bicycle" speed="3.65" length="4.67" shape="523.55,1170.27 523.27,1171.68 522.68,1172.36 521.79,1172.29 520.59,1171.48"/>
    </edge>
    <edge id=":1450552076_5" function="internal">
        <lane id=":1450552076_5_0" index="0" allow="pedestrian delivery bicycle" speed="5.10" length="5.10" shape="518.97,1175.66 520.14,1174.95 520.80,1174.02 520.95,1172.86 520.59,1171.48"/>
    </edge>
    <edge id=":1450552076_6" function="internal">
        <lane id=":1450552076_6_0" index="0" disallow="tram rail_urban rail rail_electric rail_fast ship" speed="8.94" length="9.43" shape="518.97,1175.66 527.62,1171.90"/>
    </edge>
    <edge id=":172819537_0" function="internal">
        <lane id=":172819537_0_0" index="0" disallow="tram rail_urban rail rail_electric rail_fast ship" speed="6.07" length="8.37" shape="1331.25,1212.59 1333.37,1213.54 1334.60,1214.93 1334.93,1216.76 1334.37,1219.02"/>
    </edge>
    <edge id=":172819537_1" function="internal">
        <lane id=":172819537_1_0" index="0" disallow="tram rail_urban rail rail_electric rail_fast ship" speed="3.90" length="2.79" shape="1331.41,1217.81 1331.60,1217.05 1331.48,1216.45 1331.08,1215.98 1330.37,1215.66"/>
    </edge>
    <edge id=":195903089_0" function="internal">
        <lane id=":195903089_0_0" index="0" disallow="tram rail_urban rail rail_electric rail_fast ship" speed="3.65" length="4.67" shape="595.40,1768.43 594.03,1768.90 593.15,1768.74 592.76,1767.93 592.84,1766.49"/>
    </edge>
    <edge id=":195911623_0" function="internal">
        <lane id=":195911623_0_0" index="0" disallow="tram rail_urban rail rail_electric rail_fast ship" speed="8.94" length="1.05" shape="636.02,1488.79 635.90,1488.50 635.83,1488.30 635.79,1488.09 635.73,1487.78"/>
    </edge>
    <edge id=":195911623_1" function="internal">
        <lane id=":195911623_1_0" index="0" disallow="tram rail_urban rail rail_electric rail_fast ship" speed="8.94" length="0.35" shape="638.89,1487.26 638.91,1487.36 638.92,1487.43 638.95,1487.50 638.99,1487.60"/>
    </edge>
    <edge id=":197761210_0" function="internal">
        <lane id=":197761210_0_0" index="0" disallow="tram rail_urban rail rail_electric rail_fast ship" speed="6.93" length="8.60" shape="379.41,1571.10 377.19,1570.29 375.16,1570.24 373.31,1570.96 371.65,1572.44"/>
    </edge>
    <edge id=":197761210_1" function="internal">
        <lane id=":197761210_1_0" index="0" disallow="tram rail_urban rail rail_electric rail_fast ship" speed="8.03" length="13.13" shape="379.41,1571.10 376.51,1569.05 374.85,1566.54 374.43,1563.55 375.24,1560.10"/>
    </edge>
    <edge id=":197761210_2" function="internal">
        <lane id=":197761210_2_0" index="0" disallow="tram rail_urban rail rail_electric rail_fast ship" speed="3.65" length="4.67" shape="379.41,1571.10 378.71,1569.84 378.72,1568.94 379.44,1568.42 380.88,1568.25"/>
    </edge>
    <edge id=":197761210_3" function="internal">
        <lane id=":197761210_3_0" index="0" disallow="tram rail_urban rail rail_electric rail_fast ship" speed="6.53" length="8.35" shape="378.22,1561.25 377.71,1563.45 377.98,1565.35 379.03,1566.95 380.88,1568.25"/>
    </edge>
    <edge id=":197761210_4" function="internal">
        <lane id=":197761210_4_0" index="0" disallow="tram rail_urban rail rail_electric rail_fast ship" speed="8.94" length="13.04" shape="378.22,1561.25 376.89,1564.43 375.47,1567.16 373.78,1569.73 371.65,1572.44"/>
    </edge>
    <edge id=":197761210_5" function="internal">
        <lane id=":197761210_5_0" index="0" disallow="tram rail_urban rail rail_electric rail_fast ship" speed="3.65" length="4.67" shape="378.22,1561.25 377.04,1562.08 376.15,1562.17 375.55,1561.50 375.24,1560.10"/>
    </edge>
    <edge id=":197761210_6" function="internal">
        <lane id=":197761210_6_0" index="0" disallow="tram rail_urban rail rail_electric rail_fast ship" speed="8.94" length="11.99" shape="369.20,1570.37 371.25,1567.81 372.75,1565.55 373.99,1563.13 375.24,1560.10"/>
    </edge>
    <edge id=":197761210_7" function="internal">
        <lane id=":197761210_7_0" index="0" disallow="tram rail_urban rail rail_electric rail_fast ship" speed="8.38" length="12.96" shape="369.20,1570.37 371.73,1568.11 374.51,1567.01 377.56,1567.06 380.88,1568.25"/>
    </edge>
    <edge id=":197761210_8" function="internal">
        <lane id=":197761210_8_0" index="0" disallow="tram rail_urban rail rail_electric rail_fast ship" speed="3.65" length="4.67" shape="369.20,1570.37 370.59,1569.97 371.46,1570.18 371.81,1571.00 371.65,1572.44"/>
    </edge>
    <edge id=":197761224_0" function="internal">
        <lane id=":197761224_0_0" index="0" disallow="tram rail_urban rail rail_electric rail_fast ship" speed="5.78" length="6.89" shape="312.88,1443.93 311.67,1444.27 310.80,1445.32 310.27,1447.06 310.07,1449.50"/>
    </edge>
    <edge id=":197761224_1" function="internal">
        <lane id=":197761224_1_0" index="0" disallow="tram rail_urban rail rail_electric rail_fast ship" speed="8.94" length="8.09" shape="312.88,1443.93 304.78,1443.84"/>
    </edge>
    <edge id=":197761224_2" function="internal">
        <lane id=":197761224_2_0" index="0" disallow="tram rail_urban rail rail_electric rail_fast ship" speed="3.65" length="4.67" shape="312.88,1443.93 311.68,1443.12 311.29,1442.32 311.70,1441.52 312.90,1440.73"/>
    </edge>
    <edge id=":197761224_3" function="internal">
        <lane id=":197761224_3_0" index="0" disallow="tram rail_urban rail rail_electric rail_fast ship" speed="8.94" length="8.07" shape="304.83,1440.64 312.90,1440.73"/>
    </edge>
    <edge id=":197761224_4" function="internal">
        <lane id=":197761224_4_0" index="0" disallow="tram rail_urban rail rail_electric rail_fast ship" speed="7.28" length="11.53" shape="304.83,1440.64 307.16,1441.23 308.80,1442.90 309.78,1445.66 310.07,1449.50"/>
    </edge>
    <edge id=":197761224_5" function="internal">
        <lane id=":197761224_5_0" index="0" disallow="tram rail_urban rail rail_electric rail_fast ship" speed="3.65" length="4.67" shape="304.83,1440.64 306.02,1441.46 306.41,1442.27 306.00,1443.06 304.78,1443.84"/>
    </edge>
    <edge id=":197761224_6" function="internal">
        <lane id=":197761224_6_0" index="0" disallow="tram rail_urban rail rail_electric rail_fast ship" speed="5.64" length="6.50" shape="306.87,1449.47 306.76,1447.02 306.38,1445.27 305.72,1444.21 304.78,1443.84"/>
    </edge>
    <edge id=":197761224_7" function="internal">
        <lane id=":197761224_7_0" index="0" disallow="tram rail_urban rail rail_electric rail_fast ship" speed="7.40" length="11.97" shape="306.87,1449.47 307.28,1445.63 308.42,1442.90 310.29,1441.26 312.90,1440.73"/>
    </edge>
    <edge id=":197761224_8" function="internal">
        <lane id=":197761224_8_0" index="0" disallow="tram rail_urban rail rail_electric rail_fast ship" speed="3.65" length="4.67" shape="306.87,1449.47 307.68,1448.28 308.49,1447.89 309.28,1448.30 310.07,1449.50"/>
    </edge>
    <edge id=":197761238_0" function="internal">
        <lane id=":197761238_0_0" index="0" disallow="tram rail_urban rail rail_electric rail_fast ship" speed="8.94" length="1.50" shape="271.17,1590.47 270.72,1590.52 270.42,1590.53 270.12,1590.50 269.68,1590.42"/>
    </edge>
    <edge id=":197761238_1" function="internal">
        <lane id=":197761238_1_0" index="0" disallow="tram rail_urban rail rail_electric rail_fast ship" speed="8.94" length="0.50" shape="270.27,1587.27 270.42,1587.30 270.52,1587.31 270.62,1587.31 270.77,1587.29"/>
    </edge>
    <edge id=":197767290_0" function="internal">
        <lane id=":197767290_0_0" index="0" disallow="tram rail_urban rail rail_electric rail_fast ship" speed="8.94" length="11.32" shape="390.79,1582.81 389.60,1579.64 388.16,1577.07 386.46,1575.10 384.51,1573.73"/>
    </edge>
    <edge id=":197767290_1" function="internal">
        <lane id=":197767290_1_0" index="0" disallow="tram rail_urban rail rail_electric rail_fast ship" speed="7.68" length="15.03" shape="390.79,1582.81 390.14,1578.62 391.08,1575.49 393.62,1573.43 397.75,1572.44"/>
    </edge>
    <edge id=":197767290_2" function="internal">
        <lane id=":197767290_2_0" index="0" disallow="tram rail_urban rail rail_electric rail_fast ship" speed="3.65" length="4.67" shape="390.79,1582.81 391.20,1581.43 391.85,1580.82 392.73,1580.96 393.85,1581.88"/>
    </edge>
    <edge id=":197767290_3" function="internal">