<?xml version="1.0" encoding="UTF-8"?>

<!-- generated on 2023-08-02 20:58:40 by Eclipse SUMO netedit Version 1.18.0
-->

<routes xmlns:xsi="http://www.w3.org/2001/XMLSchema-instance" xsi:noNamespaceSchemaLocation="http://sumo.dlr.de/xsd/routes_file.xsd">
    <!-- Routes -->
    <route id="r_0" edges="4910703#0 4910703#1 4910703#2 4820483#0 4820483#1 4820483#2 4820483#3 4820483#4 4820483#5 4820483#6 4820483#7 4820483#8 4820483#9 4820483#10 -4820483#10 -4820483#9 -4820483#8 -4820483#7 -4820483#6 -4820483#5 -4820483#4 -4820483#3 -4820483#2 -4820483#1 -4820483#0 4820483#00 4820483#1 4820483#2 4820483#3 4820483#4 4820483#5 4820483#6 4820483#7 4820483#8 4820483#9 4820483#10 -4820483#10 -4820483#9 -4820483#8 -4820483#7 -4820483#6 -4820483#5 -4820483#4 -4820483#3 -4820483#2 -4820483#1 -4820483#0 4820483#00 4820483#1 4820483#2 4820483#3 4820483#4 4820483#5 4820483#6 4820483#7 4820483#8 4820483#9 4820483#10 -4820483#10 -4820483#9 -4820483#8 -4820483#7 -4820483#6 -4820483#5 -4820483#4 -4820483#3 -4820483#2 -4820483#1 -4820483#0 4820483#00 4820483#1 4820483#2 4820483#3 4820483#4 4820483#5 4820483#6 4820483#7 4820483#8 4820483#9 4820483#10 61557724#0 61557724#1 30978877 30978878#0 30978878#1 22773011 22773012#0 22773012#1 22773012#2 -67805088#2 -67805088#1 -67805088#0 67805088#0 67805088#1 67805088#2 -22773012#2 -22773012#1 22773012#1 22773012#2 -67805088#2 -67805088#1 -67805088#0 67805088#0"/>
    <route id="r_1" edges="4066870"/>
    <!-- Vehicles, persons and containers (sorted by depart) -->
    <trip id="t_0" depart="0.00" from="4910703#0" to="E4" via="4910703#1 4910703#2"/>
    <trip id="t_1" depart="0.00" from="4910703#0" to="4910703#1" via="4910703#2 4820483#00 -4820483#2"/>
    <trip id="t_2" depart="0.00" from="-4910703#0" to="4820483#4" via="4910703#1 4910703#2 4820483#00 4820483#0 -4820483#2"/>
    <trip id="t_3" depart="0.00" from="-18931604#0" to="19079805#0" via="18931604#1 -18931604#2 -18931604#5 19080156#4 19080156#5 19080156#3 -19080558 19079065#8 19079065#4 19079065#5 19079065#3 19079065#2 -19079065#2 -19079574#9 -19079574#8 19079574#5 -19079574#3 19079574#2 -19079574#2 -19079574#1 -19079574#0 -19079065#10 19080558 19080156#2 19080156#1 19080156#0 -19079784#4 -19079805#0"/>
</routes>
